Version 4
SHEET 1 880 680
WIRE -80 32 -176 32
WIRE 224 64 208 64
WIRE -176 80 -176 32
WIRE 208 80 208 64
WIRE 208 80 176 80
WIRE 400 80 352 80
WIRE 208 96 208 80
WIRE 224 96 208 96
WIRE 16 144 16 80
WIRE -80 192 -80 32
WIRE -48 192 -80 192
WIRE 176 208 176 80
WIRE 176 208 80 208
WIRE 304 208 224 208
WIRE 368 208 304 208
WIRE 400 208 400 80
WIRE 400 208 368 208
WIRE 448 208 400 208
WIRE 528 208 448 208
WIRE -48 224 -176 224
WIRE -176 256 -176 224
WIRE 304 288 304 208
WIRE 304 288 -32 288
WIRE 64 352 -144 352
WIRE 176 352 176 208
WIRE 176 352 64 352
WIRE 320 352 176 352
WIRE 368 352 368 208
WIRE 496 352 368 352
WIRE -144 400 -144 352
WIRE -144 400 -224 400
WIRE -160 464 -176 464
WIRE 96 464 80 464
WIRE 368 464 352 464
WIRE -224 480 -224 400
WIRE -176 480 -176 464
WIRE -176 480 -224 480
WIRE -32 480 -32 288
WIRE 64 480 64 352
WIRE 80 480 80 464
WIRE 80 480 64 480
WIRE 224 480 224 208
WIRE 320 480 320 352
WIRE 352 480 352 464
WIRE 352 480 320 480
WIRE 496 480 496 352
WIRE -176 496 -176 480
WIRE -160 496 -176 496
WIRE 80 496 80 480
WIRE 96 496 80 496
WIRE 352 496 352 480
WIRE 368 496 352 496
FLAG -176 336 0
FLAG -176 160 0
FLAG 16 80 VDD
FLAG 448 288 0
FLAG 528 272 0
FLAG 512 64 0
FLAG 512 -16 VDD
FLAG 288 16 VDD
FLAG -96 416 VDD
FLAG 160 416 VDD
FLAG 432 416 VDD
SYMBOL nor 16 208 R0
SYMATTR InstName X1
SYMBOL voltage -176 64 R0
WINDOW 123 0 0 Left 2
WINDOW 39 0 0 Left 2
SYMATTR InstName V1
SYMATTR Value PULSE(0 1 20n 10p 10p 20n 4n)
SYMBOL voltage -176 240 R0
WINDOW 123 0 0 Left 2
WINDOW 39 0 0 Left 2
SYMATTR InstName V2
SYMATTR Value PULSE(0 1 10n 10p 10p 20n 4n)
SYMBOL res 432 192 R0
SYMATTR InstName R1
SYMATTR Value 100k
SYMBOL cap 512 208 R0
SYMATTR InstName C1
SYMATTR Value 100f
SYMBOL voltage 512 -32 R0
WINDOW 123 0 0 Left 2
WINDOW 39 0 0 Left 2
SYMATTR InstName V3
SYMATTR Value 1
SYMBOL nor 288 80 R0
SYMATTR InstName X2
SYMBOL nor 160 480 R0
SYMATTR InstName X3
SYMBOL nor -96 480 R0
SYMATTR InstName X4
SYMBOL nor 432 480 R0
SYMATTR InstName X5
TEXT -320 -16 Left 2 !.include 90nm_bulk.txt
TEXT 168 -56 Left 2 !.tran 0 40n 0 1p
