Version 4
SHEET 1 892 680
WIRE 48 96 32 96
WIRE 32 112 32 96
WIRE 32 112 -96 112
WIRE 32 128 32 112
WIRE 48 128 32 128
WIRE 192 208 192 112
WIRE 288 208 192 208
WIRE 528 208 512 208
WIRE 288 224 0 224
WIRE 512 224 512 208
WIRE 512 224 432 224
WIRE 752 224 672 224
WIRE 832 224 752 224
WIRE 288 240 192 240
WIRE 512 240 512 224
WIRE 528 240 512 240
WIRE 48 304 32 304
WIRE 32 320 32 304
WIRE 32 320 -96 320
WIRE 192 320 192 240
WIRE 32 336 32 320
WIRE 48 336 32 336
WIRE 0 432 0 224
FLAG -96 192 0
FLAG 384 48 0
FLAG -96 400 0
FLAG 0 512 0
FLAG 752 304 0
FLAG 832 288 0
FLAG 112 64 VDD
FLAG 112 272 VDD
FLAG 352 176 VDD
FLAG 384 -32 VDD
FLAG 592 176 VDD
SYMBOL nand 112 112 R0
SYMATTR InstName X1
SYMBOL nand 112 320 R0
SYMATTR InstName X2
SYMBOL nand 592 224 R0
SYMATTR InstName X3
SYMBOL nand3 336 224 R0
SYMATTR InstName X4
SYMBOL res 736 208 R0
SYMATTR InstName R1
SYMATTR Value 100k
SYMBOL cap 816 224 R0
SYMATTR InstName C1
SYMATTR Value 100f
SYMBOL voltage -96 96 R0
WINDOW 123 0 0 Left 2
WINDOW 39 0 0 Left 2
SYMATTR InstName V1
SYMATTR Value PULSE(0 1 20n 10p 10p 20n 40n)
SYMBOL voltage 384 -48 R0
WINDOW 123 0 0 Left 2
WINDOW 39 0 0 Left 2
SYMATTR InstName V2
SYMATTR Value 1
SYMBOL voltage -96 304 R0
WINDOW 123 0 0 Left 2
WINDOW 39 0 0 Left 2
SYMATTR InstName V3
SYMATTR Value PULSE(0 1 10n 10p 10p 10n 20n)
SYMBOL voltage 0 416 R0
WINDOW 123 0 0 Left 2
WINDOW 39 0 0 Left 2
SYMATTR InstName V4
SYMATTR Value PULSE(0 1 40n 10p 10p 40n 40n)
TEXT -104 -64 Left 2 !.include 90nm_bulk.txt
TEXT 616 -8 Left 2 !.tran 0 80n 0 1p
