Version 4
SHEET 1 880 680
WIRE 64 -32 -32 -32
WIRE -32 16 -32 -32
WIRE 160 80 160 16
WIRE 432 80 432 32
WIRE 64 128 64 -32
WIRE 96 128 64 128
WIRE 368 128 352 128
WIRE 352 144 352 128
WIRE 352 144 224 144
WIRE 592 144 496 144
WIRE 672 144 592 144
WIRE 96 160 -32 160
WIRE 352 160 352 144
WIRE 368 160 352 160
WIRE -32 192 -32 160
FLAG -32 272 0
FLAG -32 96 0
FLAG 160 16 VDD
FLAG 432 32 VDD
FLAG 592 224 0
FLAG 672 208 0
FLAG 656 0 0
FLAG 656 -80 VDD
SYMBOL nor 160 144 R0
SYMATTR InstName X1
SYMBOL voltage -32 0 R0
WINDOW 123 0 0 Left 2
WINDOW 39 0 0 Left 2
SYMATTR InstName V1
SYMATTR Value PULSE(0 1 20n 10p 10p 20n 4n)
SYMBOL voltage -32 176 R0
WINDOW 123 0 0 Left 2
WINDOW 39 0 0 Left 2
SYMATTR InstName V2
SYMATTR Value PULSE(0 1 10n 10p 10p 20n 4n)
SYMBOL nor 432 144 R0
SYMATTR InstName X2
SYMBOL res 576 128 R0
SYMATTR InstName R1
SYMATTR Value 100k
SYMBOL cap 656 144 R0
SYMATTR InstName C1
SYMATTR Value 100f
SYMBOL voltage 656 -96 R0
WINDOW 123 0 0 Left 2
WINDOW 39 0 0 Left 2
SYMATTR InstName V3
SYMATTR Value 1
TEXT -176 -80 Left 2 !.include 90nm_bulk.txt
TEXT 312 -120 Left 2 !.tran 0 40n 0 1p
