Version 4
SHEET 1 880 680
WIRE 80 -16 -16 -16
WIRE -16 32 -16 -16
WIRE 176 96 176 32
WIRE 80 144 80 -16
WIRE 112 144 80 144
WIRE 320 160 240 160
WIRE 368 160 320 160
WIRE 112 176 -16 176
WIRE 432 192 432 144
WIRE -16 208 -16 176
FLAG -16 288 0
FLAG -16 112 0
FLAG 320 240 0
FLAG 368 224 0
FLAG 432 272 0
FLAG 176 32 VDD
FLAG 432 144 VDD
SYMBOL nor 176 160 R0
SYMATTR InstName X1
SYMBOL voltage -16 16 R0
WINDOW 123 0 0 Left 2
WINDOW 39 0 0 Left 2
SYMATTR InstName V1
SYMATTR Value PULSE(0 1 20n 10p 10p 20n 4n)
SYMBOL voltage -16 192 R0
WINDOW 123 0 0 Left 2
WINDOW 39 0 0 Left 2
SYMATTR InstName V2
SYMATTR Value PULSE(0 1 10n 10p 10p 20n 4n)
SYMBOL voltage 432 176 R0
WINDOW 123 0 0 Left 2
WINDOW 39 0 0 Left 2
SYMATTR InstName V3
SYMATTR Value 1
SYMBOL res 304 144 R0
SYMATTR InstName R1
SYMATTR Value 100k
SYMBOL cap 352 160 R0
SYMATTR InstName C1
SYMATTR Value 100f
TEXT -160 -64 Left 2 !.include 90nm_bulk.txt
TEXT 376 -8 Left 2 !.tran 0 40n 0 1p
