Version 4
SHEET 1 972 680
WIRE 160 -288 64 -288
WIRE 64 -240 64 -288
WIRE 0 -224 -208 -224
WIRE -208 -176 -208 -224
WIRE 160 -32 160 -288
WIRE 160 -32 64 -32
WIRE 352 0 256 0
WIRE 352 16 256 16
WIRE 464 16 416 16
WIRE -80 32 -176 32
WIRE 64 32 64 -32
WIRE 112 32 64 32
WIRE 352 32 256 32
WIRE 0 48 0 -224
WIRE 112 48 0 48
WIRE 352 48 256 48
WIRE 464 48 464 16
WIRE 496 48 464 48
WIRE -80 64 -80 32
WIRE 112 64 -80 64
WIRE 352 64 256 64
WIRE 496 64 432 64
WIRE 624 64 560 64
WIRE -176 80 -176 32
WIRE 112 80 80 80
WIRE 432 80 432 64
WIRE 432 80 256 80
WIRE 496 80 448 80
WIRE 448 96 448 80
WIRE 448 96 256 96
WIRE 496 96 464 96
WIRE 464 112 464 96
WIRE 464 112 256 112
WIRE 496 128 496 112
WIRE 512 128 512 112
WIRE 512 128 496 128
WIRE 624 144 624 64
WIRE 832 144 624 144
WIRE 912 144 832 144
WIRE 368 176 368 64
WIRE 416 176 368 176
WIRE 496 176 496 128
WIRE 496 176 416 176
WIRE 416 208 416 176
WIRE 80 224 80 80
WIRE 80 224 -176 224
WIRE -176 256 -176 224
FLAG -176 336 0
FLAG -176 160 0
FLAG -208 -96 0
FLAG 64 -160 0
FLAG 896 -176 0
FLAG 896 -256 VDD
FLAG 832 224 0
FLAG 912 208 0
FLAG 416 208 0
FLAG 176 16 VDD
SYMBOL voltage -176 64 R0
WINDOW 123 0 0 Left 2
WINDOW 39 0 0 Left 2
SYMATTR InstName V1
SYMATTR Value PULSE(0 1 1n 10p 10p 1n 2n)
SYMBOL voltage -176 240 R0
WINDOW 123 0 0 Left 2
WINDOW 39 0 0 Left 2
SYMATTR InstName V2
SYMATTR Value PULSE(0 1 8n 10p 10p 8n 16n)
SYMBOL decoder 176 64 R0
SYMATTR InstName X1
SYMBOL voltage -208 -192 R0
WINDOW 123 0 0 Left 2
WINDOW 39 0 0 Left 2
SYMATTR InstName V4
SYMATTR Value PULSE(0 1 2n 10p 10p 2n 4n)
SYMBOL voltage 64 -256 R0
WINDOW 123 0 0 Left 2
WINDOW 39 0 0 Left 2
SYMATTR InstName V5
SYMATTR Value PULSE(0 1 4n 10p 10p 4n 8n)
SYMBOL voltage 896 -272 R0
WINDOW 123 0 0 Left 2
WINDOW 39 0 0 Left 2
SYMATTR InstName V6
SYMATTR Value 1
SYMBOL res 816 128 R0
SYMATTR InstName R2
SYMATTR Value 100k
SYMBOL cap 896 144 R0
SYMATTR InstName C2
SYMATTR Value 100f
SYMBOL Digital\\or 384 -32 R0
SYMATTR InstName A1
SYMBOL Digital\\or 528 16 R0
SYMATTR InstName A2
TEXT -320 -16 Left 2 !.include 90nm_bulk.txt
TEXT 168 -56 Left 2 !.tran 0 16n 0 1p
