Version 4
SHEET 1 2052 804
WIRE 64 -416 -240 -416
WIRE 192 -416 64 -416
WIRE -240 -384 -240 -416
WIRE 192 -320 192 -416
WIRE 272 -320 192 -320
WIRE 272 -304 192 -304
WIRE 736 -304 384 -304
WIRE -240 -288 -240 -304
WIRE -240 -288 -368 -288
WIRE 272 -288 208 -288
WIRE 272 -272 224 -272
WIRE 704 -272 384 -272
WIRE 48 -256 -240 -256
WIRE 192 -256 192 -304
WIRE 192 -256 48 -256
WIRE -240 -240 -240 -256
WIRE 208 -240 208 -288
WIRE 208 -240 112 -240
WIRE 672 -240 384 -240
WIRE 224 -224 224 -272
WIRE 224 -224 128 -224
WIRE 624 -208 384 -208
WIRE -368 -144 -368 -288
WIRE -240 -144 -240 -160
WIRE -240 -144 -368 -144
WIRE 32 -112 -240 -112
WIRE 112 -112 112 -240
WIRE 112 -112 32 -112
WIRE -240 -96 -240 -112
WIRE 736 -64 736 -304
WIRE 800 -64 736 -64
WIRE 960 -48 896 -48
WIRE 992 -48 960 -48
WIRE 800 -32 448 -32
WIRE -368 0 -368 -144
WIRE -240 0 -240 -16
WIRE -240 0 -368 0
WIRE 848 0 848 -16
WIRE 848 0 576 0
WIRE 16 48 -240 48
WIRE 128 48 128 -224
WIRE 128 48 16 48
WIRE -240 64 -240 48
WIRE 64 112 64 -416
WIRE 112 112 64 112
WIRE 48 128 48 -256
WIRE 112 128 48 128
WIRE 704 128 704 -272
WIRE 800 128 704 128
WIRE 32 144 32 -112
WIRE 112 144 32 144
WIRE 960 144 896 144
WIRE 992 144 960 144
WIRE -368 160 -368 0
WIRE -368 160 -480 160
WIRE -240 160 -240 144
WIRE -240 160 -368 160
WIRE 16 160 16 48
WIRE 112 160 16 160
WIRE 800 160 480 160
WIRE 576 176 576 0
WIRE 576 176 320 176
WIRE -480 192 -480 160
WIRE 112 192 16 192
WIRE 576 192 576 176
WIRE 848 192 848 176
WIRE 848 192 576 192
WIRE 112 208 32 208
WIRE 112 224 48 224
WIRE 112 240 64 240
WIRE 16 256 16 192
WIRE 16 256 -240 256
WIRE 128 256 16 256
WIRE -240 272 -240 256
WIRE 672 320 672 -240
WIRE 800 320 672 320
WIRE 960 336 896 336
WIRE 992 336 960 336
WIRE 800 352 512 352
WIRE -368 368 -368 160
WIRE -240 368 -240 352
WIRE -240 368 -368 368
WIRE 576 384 576 192
WIRE 848 384 848 368
WIRE 848 384 576 384
WIRE 32 400 32 208
WIRE 32 400 -240 400
WIRE 112 400 32 400
WIRE -240 416 -240 400
WIRE -368 512 -368 368
WIRE -240 512 -240 496
WIRE -240 512 -368 512
WIRE 448 512 448 -32
WIRE 448 512 384 512
WIRE 624 512 624 -208
WIRE 800 512 624 512
WIRE 960 528 896 528
WIRE 992 528 960 528
WIRE 48 544 48 224
WIRE 48 544 -240 544
WIRE 96 544 48 544
WIRE 480 544 480 160
WIRE 480 544 384 544
WIRE 800 544 704 544
WIRE -240 560 -240 544
WIRE 128 576 128 256
WIRE 272 576 128 576
WIRE 512 576 512 352
WIRE 512 576 384 576
WIRE 576 576 576 384
WIRE 848 576 848 560
WIRE 848 576 576 576
WIRE 112 592 112 400
WIRE 272 592 112 592
WIRE 96 608 96 544
WIRE 272 608 96 608
WIRE 704 608 704 544
WIRE 704 608 384 608
WIRE 272 624 224 624
WIRE -368 656 -368 512
WIRE -240 656 -240 640
WIRE -240 656 -368 656
WIRE 64 688 64 240
WIRE 64 688 -240 688
WIRE 224 688 224 624
WIRE 224 688 64 688
WIRE -240 704 -240 688
WIRE -368 800 -368 656
WIRE -240 800 -240 784
WIRE -240 800 -368 800
FLAG 224 112 VDD
FLAG 848 -96 VDD
FLAG 848 96 VDD
FLAG 848 288 VDD
FLAG 848 480 VDD
FLAG -480 192 0
FLAG 272 -192 0
FLAG 320 -352 VDD
FLAG 272 -240 VDD
FLAG 272 -224 VDD
FLAG 272 -208 VDD
FLAG 272 528 0
FLAG 320 464 VDD
FLAG 272 496 VDD
FLAG 272 512 VDD
FLAG 272 544 VDD
FLAG 960 144 y2
FLAG 960 336 y1
FLAG 960 528 y0
FLAG 960 -48 y3
FLAG 960 -288 0
FLAG 960 -368 VDD
SYMBOL comparator 160 176 R0
SYMATTR InstName X1
SYMBOL mux 848 -48 R0
SYMATTR InstName X2
SYMBOL mux 848 144 R0
SYMATTR InstName X3
SYMBOL mux 848 336 R0
SYMATTR InstName X4
SYMBOL mux 848 528 R0
SYMATTR InstName X5
SYMBOL voltage -240 48 R0
WINDOW 123 0 0 Left 2
WINDOW 39 0 0 Left 2
SYMATTR InstName V2
SYMATTR Value 0
SYMBOL voltage -240 -112 R0
WINDOW 123 0 0 Left 2
WINDOW 39 0 0 Left 2
SYMATTR InstName V3
SYMATTR Value 1
SYMBOL voltage -240 -256 R0
WINDOW 123 0 0 Left 2
WINDOW 39 0 0 Left 2
SYMATTR InstName V4
SYMATTR Value 1
SYMBOL voltage -240 -400 R0
WINDOW 123 0 0 Left 2
WINDOW 39 0 0 Left 2
SYMATTR InstName V5
SYMATTR Value 0
SYMBOL voltage -240 256 R0
WINDOW 123 0 0 Left 2
WINDOW 39 0 0 Left 2
SYMATTR InstName V6
SYMATTR Value 0
SYMBOL voltage -240 400 R0
WINDOW 123 0 0 Left 2
WINDOW 39 0 0 Left 2
SYMATTR InstName V7
SYMATTR Value 1
SYMBOL voltage -240 544 R0
WINDOW 123 0 0 Left 2
WINDOW 39 0 0 Left 2
SYMATTR InstName V8
SYMATTR Value 0
SYMBOL voltage -240 688 R0
WINDOW 123 0 0 Left 2
WINDOW 39 0 0 Left 2
SYMATTR InstName V9
SYMATTR Value 1
SYMBOL summer 320 -272 R0
SYMATTR InstName X6
SYMBOL summer 320 544 R0
SYMATTR InstName X7
SYMBOL voltage 960 -384 R0
WINDOW 123 0 0 Left 2
WINDOW 39 0 0 Left 2
SYMATTR InstName V1
SYMATTR Value 1
TEXT 1152 -456 Left 2 !.include 90nm_bulk.txt
TEXT 1158 -384 Left 2 !.tran 8n
