Version 4
SHEET 1 1556 680
WIRE -96 112 -336 112
WIRE -336 144 -336 112
WIRE -336 240 -336 224
WIRE -336 240 -432 240
WIRE -96 288 -96 112
WIRE -16 288 -96 288
WIRE 320 288 96 288
WIRE 400 288 320 288
WIRE -432 304 -432 240
WIRE -432 304 -528 304
WIRE 208 304 96 304
WIRE 192 320 96 320
WIRE -16 336 -336 336
WIRE 128 336 96 336
WIRE -336 400 -336 336
WIRE 208 432 208 304
WIRE 320 432 208 432
WIRE 400 432 320 432
WIRE 128 480 128 336
WIRE 128 480 80 480
WIRE 160 480 128 480
WIRE -432 496 -432 304
WIRE -336 496 -336 480
WIRE -336 496 -432 496
WIRE 192 560 192 320
WIRE 320 560 192 560
WIRE 400 560 320 560
FLAG 384 -32 0
FLAG 384 -112 VDD
FLAG 320 368 0
FLAG 400 352 0
FLAG -528 304 0
FLAG 320 512 0
FLAG 400 496 0
FLAG 320 640 0
FLAG 400 624 0
FLAG 80 560 0
FLAG 160 544 0
FLAG 48 256 VDD
SYMBOL voltage 384 -128 R0
WINDOW 123 0 0 Left 2
WINDOW 39 0 0 Left 2
SYMATTR InstName V1
SYMATTR Value 1
SYMBOL res 304 272 R0
SYMATTR InstName R1
SYMATTR Value 100k
SYMBOL cap 384 288 R0
SYMATTR InstName C1
SYMATTR Value 1f
SYMBOL voltage -336 128 R0
WINDOW 123 0 0 Left 2
WINDOW 39 0 0 Left 2
SYMATTR InstName V2
SYMATTR Value PWL(0n 1 2n 1 3n 1 3.01n 0 4n 0 5n 0 6n 0 6.01n 1 7n 1 8n 1 9n 1 10n 1 11n 1 12n 1 12.01n 0)
SYMBOL voltage -336 384 R0
WINDOW 123 0 0 Left 2
WINDOW 39 0 0 Left 2
SYMATTR InstName V3
SYMATTR Value PWL(0n 0 1n 0 1.01n 1 2n 1 2.01n 0 3n 0 4n 0 4.01n 1 5n 1 5.01n 0 6n 0 7n 0 7.01n 1 8n 1 8.01n 0 9n 0 10n 0 10.01n 1 11n 1 11.01n 0 12n 0 13n 0 13.01n 1 14n 1 14.01n 0)
SYMBOL res 304 416 R0
SYMATTR InstName R2
SYMATTR Value 100k
SYMBOL cap 384 432 R0
SYMATTR InstName C2
SYMATTR Value 1f
SYMBOL res 304 544 R0
SYMATTR InstName R3
SYMATTR Value 100k
SYMBOL cap 384 560 R0
SYMATTR InstName C3
SYMATTR Value 1f
SYMBOL res 64 464 R0
SYMATTR InstName R4
SYMATTR Value 100k
SYMBOL cap 144 480 R0
SYMATTR InstName C4
SYMATTR Value 1f
SYMBOL shift-left 48 320 R0
SYMATTR InstName X1
TEXT 8 -112 Left 2 !.include 90nm_bulk.txt
TEXT 56 -56 Left 2 !.tran 0 15n 0 1p
