Version 4
SHEET 1 880 680
WIRE 224 128 -16 128
WIRE -16 160 -16 128
WIRE -16 256 -16 240
WIRE -16 256 -112 256
WIRE 224 304 224 128
WIRE 304 304 224 304
WIRE 640 304 432 304
WIRE 720 304 640 304
WIRE -112 320 -112 256
WIRE -112 320 -208 320
WIRE 304 352 -16 352
WIRE 480 352 432 352
WIRE -16 416 -16 352
WIRE -112 512 -112 320
WIRE -16 512 -16 496
WIRE -16 512 -112 512
FLAG 704 -16 0
FLAG 704 -96 VDD
FLAG 640 384 0
FLAG 720 368 0
FLAG -208 320 0
FLAG 368 272 VDD
SYMBOL voltage 704 -112 R0
WINDOW 123 0 0 Left 2
WINDOW 39 0 0 Left 2
SYMATTR InstName V5
SYMATTR Value 1
SYMBOL res 624 288 R0
SYMATTR InstName R1
SYMATTR Value 100k
SYMBOL cap 704 304 R0
SYMATTR InstName C1
SYMATTR Value 1f
SYMBOL voltage -16 144 R0
WINDOW 123 0 0 Left 2
WINDOW 39 0 0 Left 2
SYMATTR InstName V1
SYMATTR Value PULSE(0 1 1.5n 10p 10p 2n 4n)
SYMBOL voltage -16 400 R0
WINDOW 123 0 0 Left 2
WINDOW 39 0 0 Left 2
SYMATTR InstName V2
SYMATTR Value PULSE(0 1 0.5n 10p 10p 1n 2n)
SYMBOL d-level 368 336 R0
SYMATTR InstName X1
TEXT 328 -96 Left 2 !.include 90nm_bulk.txt
TEXT 376 -40 Left 2 !.tran 0 10n 0 1p
