Version 4
SHEET 1 880 824
WIRE -48 -208 -112 -208
WIRE 128 -208 128 -304
WIRE 128 -208 -48 -208
WIRE -48 -192 -48 -208
WIRE -112 -160 -112 -208
WIRE -96 -160 -112 -160
WIRE -160 -144 -160 -256
WIRE -96 -144 -160 -144
WIRE 96 -64 -128 -64
WIRE 128 -64 128 -208
WIRE 128 -64 96 -64
WIRE 208 -64 128 -64
WIRE 368 -64 208 -64
WIRE -128 -48 -128 -64
WIRE 96 -32 96 -64
WIRE -192 -16 -240 -16
WIRE 32 0 -64 0
WIRE -320 16 -320 -256
WIRE -192 16 -320 16
WIRE 272 16 160 16
WIRE 0 32 0 -144
WIRE 32 32 0 32
WIRE -240 80 -240 -16
WIRE -240 80 -384 80
WIRE 96 96 -128 96
WIRE 208 96 208 -64
WIRE 208 96 96 96
WIRE 96 112 96 96
WIRE -240 128 -240 80
WIRE -192 128 -240 128
WIRE 32 144 -48 144
WIRE -320 160 -320 16
WIRE -192 160 -320 160
WIRE 256 160 160 160
WIRE 0 176 0 32
WIRE 32 176 0 176
WIRE 368 176 368 -64
WIRE 272 208 272 16
WIRE 320 208 272 208
WIRE 480 208 416 208
WIRE 288 224 288 -128
WIRE 320 224 288 224
WIRE 256 240 256 160
WIRE 320 240 256 240
WIRE 464 240 416 240
WIRE 96 272 -128 272
WIRE 208 272 208 96
WIRE 208 272 96 272
WIRE 368 272 208 272
WIRE 96 288 96 272
WIRE -192 304 -240 304
WIRE 32 320 -64 320
WIRE -320 336 -320 160
WIRE -192 336 -320 336
WIRE 272 336 160 336
WIRE 368 336 368 272
WIRE 0 352 0 176
WIRE 32 352 0 352
WIRE 272 368 272 336
WIRE 320 368 272 368
WIRE 480 368 416 368
WIRE 288 384 288 224
WIRE 320 384 288 384
WIRE -240 400 -240 304
WIRE -240 400 -384 400
WIRE 320 400 256 400
WIRE 464 400 416 400
WIRE 96 416 -128 416
WIRE 208 416 208 272
WIRE 208 416 96 416
WIRE 96 432 96 416
WIRE -240 448 -240 400
WIRE -192 448 -240 448
WIRE 32 464 -48 464
WIRE -320 480 -320 336
WIRE -192 480 -320 480
WIRE 256 480 256 400
WIRE 256 480 160 480
WIRE 0 496 0 352
WIRE 32 496 0 496
WIRE 208 496 208 416
WIRE 368 496 208 496
WIRE 320 528 256 528
WIRE 480 528 416 528
WIRE 288 544 288 384
WIRE 320 544 288 544
WIRE 320 560 272 560
WIRE 464 560 416 560
WIRE 96 576 -128 576
WIRE 208 576 208 496
WIRE 208 576 96 576
WIRE 96 592 96 576
WIRE -192 608 -240 608
WIRE 32 624 -64 624
WIRE -320 640 -320 480
WIRE -192 640 -320 640
WIRE 256 640 256 528
WIRE 256 640 160 640
WIRE 0 656 0 496
WIRE 32 656 0 656
WIRE -240 688 -240 608
WIRE -240 688 -384 688
WIRE 96 720 -128 720
WIRE 208 720 208 576
WIRE 208 720 96 720
WIRE 96 736 96 720
WIRE -240 752 -240 688
WIRE -192 752 -240 752
WIRE 32 768 -48 768
WIRE -320 784 -320 640
WIRE -192 784 -320 784
WIRE 272 784 272 560
WIRE 272 784 160 784
WIRE 0 800 0 656
WIRE 32 800 0 800
FLAG 480 208 Y0
IOPIN 480 208 Out
FLAG 480 368 Y1
IOPIN 480 368 Out
FLAG 480 528 Y2
IOPIN 480 528 Out
FLAG -160 -256 SAVE
IOPIN -160 -256 In
FLAG 128 -304 VDD
IOPIN 128 -304 In
FLAG -320 -256 RESET
IOPIN -320 -256 In
FLAG 288 -128 C
IOPIN 288 -128 In
FLAG -384 400 Y1`
IOPIN -384 400 In
FLAG -384 688 Y2`
IOPIN -384 688 In
FLAG -384 80 Y0`
IOPIN -384 80 In
SYMBOL and -144 0 R0
SYMATTR InstName X5
SYMBOL and 80 16 R0
SYMATTR InstName X7
SYMBOL and 80 160 R0
SYMATTR InstName X8
SYMBOL nand -128 144 R0
SYMATTR InstName X6
SYMBOL and -144 320 R0
SYMATTR InstName X1
SYMBOL and 80 336 R0
SYMATTR InstName X2
SYMBOL and 80 480 R0
SYMATTR InstName X3
SYMBOL nand -128 464 R0
SYMATTR InstName X12
SYMBOL and -144 624 R0
SYMATTR InstName X13
SYMBOL and 80 640 R0
SYMATTR InstName X14
SYMBOL and 80 784 R0
SYMATTR InstName X15
SYMBOL nand -128 768 R0
SYMATTR InstName X16
SYMBOL jk-front 368 240 R0
SYMATTR InstName X17
SYMBOL jk-front 368 400 R0
SYMATTR InstName X18
SYMBOL jk-front 368 560 R0
SYMATTR InstName X19
SYMBOL xor -48 -144 R0
SYMATTR InstName X9
