Version 4
SHEET 1 2144 680
WIRE 1200 -176 704 -176
WIRE 704 -144 704 -176
WIRE 704 -48 704 -64
WIRE 704 -48 656 -48
WIRE 2000 0 1888 0
WIRE 2080 0 2000 0
WIRE 1168 16 704 16
WIRE 704 48 704 16
WIRE 1200 80 1200 -176
WIRE 1264 80 1200 80
WIRE 1888 80 1888 0
WIRE 1888 80 1376 80
WIRE 1168 96 1168 16
WIRE 1264 96 1168 96
WIRE 1904 96 1376 96
WIRE 1264 112 1216 112
WIRE 1840 112 1376 112
WIRE 656 144 656 -48
WIRE 704 144 704 128
WIRE 704 144 656 144
WIRE 1904 160 1904 96
WIRE 2000 160 1904 160
WIRE 2080 160 2000 160
WIRE 1216 224 1216 112
WIRE 1216 224 704 224
WIRE 704 256 704 224
WIRE 1344 304 1344 144
WIRE 1840 304 1840 112
WIRE 1984 304 1840 304
WIRE 2064 304 1984 304
WIRE 656 352 656 144
WIRE 704 352 704 336
WIRE 704 352 656 352
WIRE 1296 448 1296 144
WIRE 1296 544 1296 528
WIRE 1344 544 1344 384
WIRE 1344 544 1296 544
WIRE 656 624 656 352
WIRE 976 624 656 624
WIRE 1344 624 1344 544
WIRE 1344 624 976 624
WIRE 976 656 976 624
FLAG 1520 -192 vdd
FLAG 1520 -112 0
FLAG 976 656 0
FLAG 2000 80 0
FLAG 2080 64 0
FLAG 2000 240 0
FLAG 2080 224 0
FLAG 1984 384 0
FLAG 2064 368 0
FLAG 1312 48 vdd
SYMBOL voltage 1344 288 R0
WINDOW 123 0 0 Left 2
WINDOW 39 0 0 Left 2
SYMATTR InstName V5
SYMATTR Value PWL(0n 0 1n 0 1.01n 1)
SYMBOL voltage 1520 -208 R0
WINDOW 123 0 0 Left 2
WINDOW 39 0 0 Left 2
SYMATTR InstName V6
SYMATTR Value 1
SYMBOL voltage 1296 432 R0
WINDOW 123 0 0 Left 2
WINDOW 39 0 0 Left 2
SYMATTR InstName V1
SYMATTR Value PULSE(0 1 0.5n 10p 10p 2n 4n)
SYMBOL voltage 704 -160 R0
WINDOW 123 0 0 Left 2
WINDOW 39 0 0 Left 2
SYMATTR InstName V7
SYMATTR Value PULSE(0 1 6n 10p 10p 8n 16n)
SYMBOL voltage 704 32 R0
WINDOW 123 0 0 Left 2
WINDOW 39 0 0 Left 2
SYMATTR InstName V8
SYMATTR Value PULSE(0 1 2n 10p 10p 8n 16n)
SYMBOL voltage 704 240 R0
WINDOW 123 0 0 Left 2
WINDOW 39 0 0 Left 2
SYMATTR InstName V9
SYMATTR Value PULSE(0 1 18n 10p 10p 8n 16n)
SYMBOL res 1984 -16 R0
SYMATTR InstName R2
SYMATTR Value 100k
SYMBOL cap 2064 0 R0
SYMATTR InstName C2
SYMATTR Value 0.01f
SYMBOL res 1984 144 R0
SYMATTR InstName R3
SYMATTR Value 100k
SYMBOL cap 2064 160 R0
SYMATTR InstName C3
SYMATTR Value 0.01f
SYMBOL res 1968 288 R0
SYMATTR InstName R4
SYMATTR Value 100k
SYMBOL cap 2048 304 R0
SYMATTR InstName C4
SYMATTR Value 0.01f
SYMBOL 4_automat2 1312 112 R0
SYMATTR InstName X1
TEXT 1008 -272 Left 2 !.include 90nm_bulk.txt
TEXT 1056 -216 Left 2 !.tran 0 26n 0 1p
