Version 4
SHEET 1 880 680
WIRE 64 -32 -96 -32
WIRE -96 0 -96 -32
WIRE -96 96 -96 80
WIRE -96 96 -192 96
WIRE -192 144 -192 96
WIRE -192 144 -256 144
WIRE 64 144 64 -32
WIRE 144 144 64 144
WIRE 576 144 240 144
WIRE 656 144 576 144
WIRE 416 160 240 160
WIRE 496 160 416 160
WIRE 144 176 -96 176
WIRE 288 176 240 176
WIRE -192 272 -192 144
WIRE -96 272 -96 256
WIRE -96 272 -192 272
WIRE 288 304 288 176
WIRE 304 304 288 304
WIRE 384 304 304 304
WIRE 192 416 192 208
WIRE -192 512 -192 272
WIRE 192 512 192 496
WIRE 192 512 -192 512
FLAG 576 224 0
FLAG 656 208 0
FLAG 416 240 0
FLAG 496 224 0
FLAG 304 384 0
FLAG 384 368 0
FLAG 192 112 vdd
FLAG 496 -160 vdd
FLAG 496 -80 0
FLAG -256 144 0
SYMBOL 4_seq_recog 192 160 R0
SYMATTR InstName X1
SYMBOL res 560 128 R0
SYMATTR InstName R1
SYMATTR Value 100k
SYMBOL cap 640 144 R0
SYMATTR InstName C1
SYMATTR Value 0.01f
SYMBOL res 400 144 R0
SYMATTR InstName R2
SYMATTR Value 100k
SYMBOL cap 480 160 R0
SYMATTR InstName C2
SYMATTR Value 0.01f
SYMBOL res 288 288 R0
SYMATTR InstName R3
SYMATTR Value 100k
SYMBOL cap 368 304 R0
SYMATTR InstName C3
SYMATTR Value 0.01f
SYMBOL voltage 496 -176 R0
WINDOW 123 0 0 Left 2
WINDOW 39 0 0 Left 2
SYMATTR InstName V1
SYMATTR Value 1
SYMBOL voltage -96 -16 R0
WINDOW 123 0 0 Left 2
WINDOW 39 0 0 Left 2
SYMATTR InstName V2
SYMATTR Value PWL(0n 0 14n 0 14.01n 1 22n 1 22.01n 0)
SYMBOL voltage -96 160 R0
WINDOW 123 0 0 Left 2
WINDOW 39 0 0 Left 2
SYMATTR InstName V3
SYMATTR Value PULSE(0 1 0.5n 10p 10p 2n 4n)
SYMBOL voltage 192 400 R0
WINDOW 123 0 0 Left 2
WINDOW 39 0 0 Left 2
SYMATTR InstName V4
SYMATTR Value PWL(0n 0 1n 0 1.01n 1)
TEXT 40 -232 Left 2 !.include 90nm_bulk.txt
TEXT 88 -176 Left 2 !.tran 0 26n 0 1p
