Version 4
SHEET 1 880 680
WIRE -336 -352 -336 -464
WIRE -16 -352 -336 -352
WIRE 192 -352 -16 -352
WIRE -16 -320 -16 -352
WIRE 192 -304 192 -352
WIRE -80 -288 -208 -288
WIRE 128 -272 48 -272
WIRE 368 -272 256 -272
WIRE -160 -256 -160 -464
WIRE -80 -256 -160 -256
WIRE 96 -224 96 -496
WIRE 128 -224 96 -224
WIRE 288 -224 256 -224
WIRE -336 -176 -336 -352
WIRE -16 -176 -336 -176
WIRE 192 -176 -16 -176
WIRE -16 -160 -16 -176
WIRE 192 -144 192 -176
WIRE -80 -128 -208 -128
WIRE 128 -112 48 -112
WIRE 368 -112 256 -112
WIRE -160 -96 -160 -256
WIRE -80 -96 -160 -96
WIRE 96 -64 96 -224
WIRE 128 -64 96 -64
WIRE 288 -64 256 -64
WIRE -336 -16 -336 -176
WIRE -16 -16 -336 -16
WIRE 192 -16 -16 -16
WIRE -16 0 -16 -16
WIRE 192 16 192 -16
WIRE -80 32 -208 32
WIRE 128 48 48 48
WIRE 368 48 256 48
WIRE -160 64 -160 -96
WIRE -80 64 -160 64
WIRE 96 96 96 -64
WIRE 128 96 96 96
WIRE 288 96 256 96
WIRE -336 128 -336 -16
WIRE -16 128 -336 128
WIRE 192 128 -16 128
WIRE -16 160 -16 128
WIRE 192 176 192 128
WIRE -80 192 -208 192
WIRE 128 208 48 208
WIRE 368 208 256 208
WIRE -160 224 -160 64
WIRE -80 224 -160 224
WIRE 96 256 96 96
WIRE 128 256 96 256
WIRE 288 256 256 256
WIRE -336 304 -336 128
WIRE -16 304 -336 304
WIRE 192 304 -16 304
WIRE -16 320 -16 304
WIRE 192 336 192 304
WIRE -80 352 -208 352
WIRE 128 368 48 368
WIRE 368 368 256 368
WIRE -160 384 -160 224
WIRE -80 384 -160 384
WIRE 96 416 96 256
WIRE 128 416 96 416
WIRE 288 416 256 416
WIRE -336 448 -336 304
WIRE -240 448 -336 448
WIRE -48 448 -240 448
WIRE 192 448 -48 448
WIRE -240 480 -240 448
WIRE -48 480 -48 448
WIRE 192 496 192 448
WIRE -304 512 -336 512
WIRE -112 512 -176 512
WIRE 128 528 32 528
WIRE 368 528 256 528
WIRE -160 544 -160 384
WIRE -112 544 -160 544
WIRE 96 576 96 416
WIRE 128 576 96 576
WIRE 288 576 256 576
FLAG -160 -464 RESET
IOPIN -160 -464 In
FLAG -208 -288 S5`
IOPIN -208 -288 In
FLAG -208 -128 S4`
IOPIN -208 -128 In
FLAG -208 32 S3`
IOPIN -208 32 In
FLAG -208 192 S2`
IOPIN -208 192 In
FLAG -208 352 S1`
IOPIN -208 352 In
FLAG -336 512 S0`
IOPIN -336 512 In
FLAG 96 -496 C
IOPIN 96 -496 In
FLAG -336 -464 VDD
IOPIN -336 -464 In
FLAG 368 528 S0
IOPIN 368 528 Out
FLAG 368 368 S1
IOPIN 368 368 Out
FLAG 368 208 S2
IOPIN 368 208 Out
FLAG 368 48 S3
IOPIN 368 48 Out
FLAG 368 -112 S4
IOPIN 368 -112 Out
FLAG 368 -272 S5
IOPIN 368 -272 Out
SYMBOL d-front 192 80 R0
SYMATTR InstName X1
SYMBOL d-front 192 240 R0
SYMATTR InstName X2
SYMBOL d-front 192 400 R0
SYMATTR InstName X3
SYMBOL d-front 192 560 R0
SYMATTR InstName X4
SYMBOL d-front 192 -80 R0
SYMATTR InstName X5
SYMBOL d-front 192 -240 R0
SYMATTR InstName X6
SYMBOL and -32 -272 R0
SYMATTR InstName X7
SYMBOL and -32 -112 R0
SYMATTR InstName X8
SYMBOL and -32 48 R0
SYMATTR InstName X9
SYMBOL and -32 208 R0
SYMATTR InstName X10
SYMBOL and -32 368 R0
SYMATTR InstName X11
SYMBOL nand -48 528 R0
SYMATTR InstName X12
SYMBOL inverter -240 512 R0
SYMATTR InstName X13
