Version 4
SHEET 1 880 680
WIRE 208 16 208 -112
WIRE 208 16 80 16
WIRE 288 16 208 16
WIRE 80 32 80 16
WIRE 288 48 288 16
WIRE 16 64 -64 64
WIRE 224 80 144 80
WIRE 16 96 -64 96
WIRE 416 96 352 96
WIRE 224 112 144 112
WIRE 144 176 144 112
WIRE 144 176 -64 176
FLAG -64 64 A
IOPIN -64 64 In
FLAG -64 96 B
IOPIN -64 96 In
FLAG -64 176 C
IOPIN -64 176 In
FLAG 416 96 OUT
IOPIN 416 96 Out
FLAG 208 -112 VDD
IOPIN 208 -112 In
SYMBOL and 64 80 R0
SYMATTR InstName X1
SYMBOL and 272 96 R0
SYMATTR InstName X2
