Version 4
SHEET 1 1444 904
WIRE 672 -224 640 -224
WIRE 848 -224 672 -224
WIRE 1184 -224 848 -224
WIRE 208 -64 -64 -64
WIRE 496 -64 208 -64
WIRE 672 -64 672 -224
WIRE 672 -64 496 -64
WIRE 432 -32 64 -32
WIRE 1072 -16 576 -16
WIRE 432 0 368 0
WIRE 208 16 208 -64
WIRE 208 16 160 16
WIRE 272 16 208 16
WIRE 64 48 64 -32
WIRE 64 48 48 48
WIRE 96 48 64 48
WIRE 336 48 224 48
WIRE 272 80 272 16
WIRE 272 80 176 80
WIRE 496 80 272 80
WIRE 112 112 48 112
WIRE 368 112 368 0
WIRE 368 112 240 112
WIRE 496 112 496 80
WIRE 848 112 848 -224
WIRE 960 112 848 112
WIRE 336 144 336 48
WIRE 432 144 336 144
WIRE 688 160 576 160
WIRE 736 160 688 160
WIRE 112 176 112 112
WIRE 432 176 112 176
WIRE 848 192 848 112
WIRE 1184 192 1184 -224
WIRE 1440 192 1184 192
WIRE 720 208 96 208
WIRE 736 224 736 160
WIRE 784 224 736 224
WIRE 272 240 272 80
WIRE 272 240 192 240
WIRE 720 240 720 208
WIRE 784 240 720 240
WIRE 1056 240 928 240
WIRE 784 256 368 256
WIRE 96 272 96 208
WIRE 96 272 48 272
WIRE 128 272 96 272
WIRE 416 272 256 272
WIRE 272 320 272 240
WIRE 272 320 208 320
WIRE 960 320 960 112
WIRE 960 320 528 320
WIRE 1184 320 1184 192
WIRE 128 352 48 352
WIRE 144 352 128 352
WIRE 368 352 368 256
WIRE 368 352 272 352
WIRE 416 352 416 272
WIRE 464 352 416 352
WIRE 1072 352 1072 -16
WIRE 1120 352 1072 352
WIRE 672 368 608 368
WIRE 1056 368 1056 240
WIRE 1120 368 1056 368
WIRE 464 384 416 384
WIRE 1120 384 1056 384
WIRE 1328 384 1280 384
WIRE 128 400 128 352
WIRE 416 400 416 384
WIRE 416 400 128 400
WIRE 400 416 80 416
WIRE 960 448 960 320
WIRE 960 448 864 448
WIRE 1008 448 960 448
WIRE -64 464 -64 -64
WIRE 192 464 -64 464
WIRE 400 464 400 416
WIRE 656 464 400 464
WIRE 640 480 368 480
WIRE 688 480 688 160
WIRE 800 480 688 480
WIRE 80 496 80 416
WIRE 80 496 48 496
WIRE 128 496 80 496
WIRE 352 496 256 496
WIRE 672 496 672 368
WIRE 800 496 672 496
WIRE 656 512 656 464
WIRE 800 512 656 512
WIRE 1056 512 1056 384
WIRE 1056 512 960 512
WIRE 592 528 512 528
WIRE 640 528 640 480
WIRE 800 528 640 528
WIRE -64 560 -64 464
WIRE 192 560 -64 560
WIRE 352 560 352 496
WIRE 448 560 352 560
WIRE 592 560 592 528
WIRE 1440 560 1440 192
WIRE 1440 560 592 560
WIRE 656 576 592 576
WIRE 80 592 48 592
WIRE 128 592 80 592
WIRE 368 592 368 480
WIRE 368 592 256 592
WIRE 448 592 416 592
WIRE 80 640 80 592
WIRE 416 640 416 592
WIRE 416 640 80 640
WIRE 1008 672 1008 448
WIRE 1008 672 816 672
WIRE 688 704 688 480
WIRE 752 704 688 704
WIRE 304 720 48 720
WIRE 672 720 672 496
WIRE 752 720 672 720
WIRE 656 736 656 576
WIRE 752 736 656 736
WIRE 1120 736 1120 400
WIRE 1120 736 912 736
WIRE 304 752 304 720
WIRE 752 752 304 752
WIRE 752 768 720 768
WIRE -64 800 -64 560
WIRE 192 800 -64 800
WIRE 128 832 48 832
WIRE 720 832 720 768
WIRE 720 832 256 832
FLAG 48 48 a3
IOPIN 48 48 In
FLAG 48 112 b3
IOPIN 48 112 In
FLAG 48 272 a2
IOPIN 48 272 In
FLAG 48 352 b2
IOPIN 48 352 In
FLAG 48 496 a1
IOPIN 48 496 In
FLAG 48 592 b1
IOPIN 48 592 In
FLAG 48 720 a0
IOPIN 48 720 In
FLAG 48 832 b0
IOPIN 48 832 In
FLAG 1328 384 OUT
IOPIN 1328 384 Out
FLAG 640 -224 VDD
IOPIN 640 -224 In
SYMBOL inverter 176 112 R0
SYMATTR InstName X1
SYMBOL inverter 160 48 R0
SYMATTR InstName X2
SYMBOL inverter 192 272 R0
SYMATTR InstName X3
SYMBOL inverter 208 352 R0
SYMATTR InstName X4
SYMBOL inverter 192 496 R0
SYMATTR InstName X5
SYMBOL inverter 192 592 R0
SYMATTR InstName X6
SYMBOL inverter 192 832 R0
SYMATTR InstName X8
SYMBOL nand 496 160 R0
SYMATTR InstName X9
SYMBOL nand 496 -16 R0
SYMATTR InstName X10
SYMBOL nand 528 368 R0
SYMATTR InstName X11
SYMBOL nand 512 576 R0
SYMATTR InstName X12
SYMBOL nand3 832 240 R0
SYMATTR InstName X13
SYMBOL nand4 864 512 R0
SYMATTR InstName X14
SYMBOL nand4 1184 384 R0
SYMATTR InstName X15
SYMBOL nand5 800 752 R0
SYMATTR InstName X16
