Version 4
SHEET 1 1524 680
WIRE 736 -384 704 -384
WIRE 240 -352 144 -352
WIRE 736 -352 736 -384
WIRE 736 -352 240 -352
WIRE 736 -288 736 -352
WIRE 736 -288 576 -288
WIRE 416 -256 208 -256
WIRE 512 -256 416 -256
WIRE 512 -240 336 -240
WIRE 784 -240 640 -240
WIRE 512 -224 272 -224
WIRE 512 -208 432 -208
WIRE 736 -176 736 -288
WIRE 736 -176 576 -176
WIRE 368 -160 64 -160
WIRE 368 -144 368 -160
WIRE 512 -144 368 -144
WIRE 336 -128 336 -240
WIRE 512 -128 336 -128
WIRE 784 -128 640 -128
WIRE 272 -112 272 -224
WIRE 512 -112 272 -112
WIRE 432 -96 432 -208
WIRE 512 -96 432 -96
WIRE 736 -64 736 -176
WIRE 736 -64 576 -64
WIRE 288 -48 32 -48
WIRE 416 -32 416 -256
WIRE 512 -32 416 -32
WIRE 288 -16 288 -48
WIRE 512 -16 288 -16
WIRE 784 -16 640 -16
WIRE 144 0 144 -352
WIRE 272 0 272 -112
WIRE 512 0 272 0
WIRE 432 16 432 -96
WIRE 512 16 432 16
WIRE 64 32 64 -160
WIRE 64 32 0 32
WIRE 80 32 64 32
WIRE 208 32 208 -256
WIRE 736 32 736 -64
WIRE 736 32 576 32
WIRE 240 64 240 -352
WIRE 240 64 144 64
WIRE 368 64 368 -144
WIRE 512 64 368 64
WIRE 288 80 288 -16
WIRE 512 80 288 80
WIRE 784 80 640 80
WIRE 32 96 32 -48
WIRE 32 96 0 96
WIRE 80 96 32 96
WIRE 336 96 336 -128
WIRE 336 96 208 96
WIRE 512 96 384 96
WIRE 432 112 432 16
WIRE 512 112 432 112
WIRE 240 128 240 64
WIRE 240 128 144 128
WIRE 272 128 272 0
WIRE 384 128 384 96
WIRE 384 128 272 128
WIRE 736 128 736 32
WIRE 736 128 576 128
WIRE 48 160 0 160
WIRE 80 160 48 160
WIRE 272 160 272 128
WIRE 272 160 208 160
WIRE 416 160 416 -32
WIRE 512 160 416 160
WIRE 336 176 336 96
WIRE 512 176 336 176
WIRE 784 176 640 176
WIRE 512 192 448 192
WIRE 432 208 432 112
WIRE 512 208 432 208
WIRE 48 224 48 160
WIRE 448 224 448 192
WIRE 448 224 48 224
WIRE 736 224 736 128
WIRE 736 224 576 224
WIRE 16 240 0 240
WIRE 336 240 336 176
WIRE 464 240 336 240
WIRE 368 256 368 64
WIRE 512 256 368 256
WIRE 16 272 16 240
WIRE 432 272 432 208
WIRE 432 272 16 272
WIRE 464 272 464 240
WIRE 512 272 464 272
WIRE 784 272 640 272
WIRE 448 288 448 224
WIRE 512 288 448 288
WIRE 432 304 432 272
WIRE 512 304 432 304
WIRE 736 320 736 224
WIRE 736 320 576 320
WIRE 416 352 416 160
WIRE 512 352 416 352
WIRE 288 368 288 80
WIRE 512 368 288 368
WIRE 784 368 640 368
WIRE 448 384 448 288
WIRE 512 384 448 384
WIRE 432 400 432 304
WIRE 512 400 432 400
WIRE 736 432 736 320
WIRE 736 432 576 432
WIRE 368 464 368 256
WIRE 512 464 368 464
WIRE 288 480 288 368
WIRE 512 480 288 480
WIRE 784 480 640 480
WIRE 448 496 448 384
WIRE 512 496 448 496
WIRE 16 512 16 272
WIRE 512 512 16 512
FLAG 0 32 a1
IOPIN 0 32 In
FLAG 0 96 a2
IOPIN 0 96 In
FLAG 0 160 a3
IOPIN 0 160 In
FLAG 0 240 in
IOPIN 0 240 In
FLAG 704 -384 vdd
IOPIN 704 -384 In
FLAG 784 -240 y1
IOPIN 784 -240 Out
FLAG 784 -128 y2
IOPIN 784 -128 Out
FLAG 784 -16 y3
IOPIN 784 -16 Out
FLAG 784 80 y4
IOPIN 784 80 Out
FLAG 784 176 y5
IOPIN 784 176 Out
FLAG 784 272 y6
IOPIN 784 272 Out
FLAG 784 368 y7
IOPIN 784 368 Out
FLAG 784 480 y8
IOPIN 784 480 Out
SYMBOL inverter 144 32 R0
SYMATTR InstName X1
SYMBOL inverter 144 96 R0
SYMATTR InstName X2
SYMBOL inverter 144 160 R0
SYMATTR InstName X3
SYMBOL and4 592 -224 R0
SYMATTR InstName X4
SYMBOL and4 592 -112 R0
SYMATTR InstName X5
SYMBOL and4 592 0 R0
SYMATTR InstName X6
SYMBOL and4 592 96 R0
SYMATTR InstName X7
SYMBOL and4 592 192 R0
SYMATTR InstName X8
SYMBOL and4 592 288 R0
SYMATTR InstName X17
SYMBOL and4 592 384 R0
SYMATTR InstName X18
SYMBOL and4 592 496 R0
SYMATTR InstName X19
