Version 4
SHEET 1 944 680
WIRE 416 -112 384 -112
WIRE 416 32 416 -112
WIRE 416 32 256 32
WIRE 512 32 416 32
WIRE 592 32 512 32
WIRE 736 32 592 32
WIRE 256 48 256 32
WIRE 512 48 512 32
WIRE 160 80 112 80
WIRE 192 80 160 80
WIRE 448 80 320 80
WIRE 624 96 576 96
WIRE 448 112 400 112
WIRE 736 112 736 32
WIRE 624 144 624 96
WIRE 688 144 624 144
WIRE 400 160 400 112
WIRE 400 160 112 160
WIRE 688 160 624 160
WIRE 848 160 784 160
WIRE 592 176 592 32
WIRE 592 176 512 176
WIRE 160 208 160 80
WIRE 448 208 160 208
WIRE 624 224 624 160
WIRE 624 224 576 224
WIRE 448 240 112 240
FLAG 112 80 g0
IOPIN 112 80 In
FLAG 112 160 in1
IOPIN 112 160 In
FLAG 112 240 in2
IOPIN 112 240 In
FLAG 848 160 out
IOPIN 848 160 Out
FLAG 384 -112 vdd
IOPIN 384 -112 In
SYMBOL inverter 256 80 R0
SYMATTR InstName X1
SYMBOL and 496 96 R0
SYMATTR InstName X2
SYMBOL and 496 224 R0
SYMATTR InstName X3
SYMBOL or 752 160 R0
SYMATTR InstName X4
