Version 4
SHEET 1 880 680
WIRE 192 16 112 16
WIRE 272 16 272 -80
WIRE 272 16 192 16
WIRE 320 16 272 16
WIRE 496 16 320 16
WIRE 640 16 496 16
WIRE 112 64 112 16
WIRE 320 80 320 16
WIRE 64 96 -80 96
WIRE 496 96 496 16
WIRE 64 112 0 112
WIRE 272 112 160 112
WIRE 640 112 640 16
WIRE 272 128 224 128
WIRE 448 128 368 128
WIRE 0 144 0 112
WIRE 0 144 -80 144
WIRE 448 144 400 144
WIRE 576 144 544 144
WIRE 736 144 704 144
WIRE 192 192 192 16
WIRE 192 192 112 192
WIRE 64 224 -80 224
WIRE 64 240 16 240
WIRE 224 240 224 128
WIRE 224 240 160 240
WIRE 16 256 16 240
WIRE 16 256 -80 256
WIRE 400 336 400 144
WIRE 400 336 -80 336
FLAG -80 96 in1
IOPIN -80 96 In
FLAG -80 144 in2
IOPIN -80 144 In
FLAG -80 224 in3
IOPIN -80 224 In
FLAG -80 256 in4
IOPIN -80 256 In
FLAG -80 336 in5
IOPIN -80 336 In
FLAG 272 -80 VDD
IOPIN 272 -80 In
FLAG 736 144 out
IOPIN 736 144 Out
SYMBOL or 128 112 R0
SYMATTR InstName X1
SYMBOL or 128 240 R0
SYMATTR InstName X2
SYMBOL or 336 128 R0
SYMATTR InstName X3
SYMBOL or 512 144 R0
SYMATTR InstName X4
SYMBOL inverter 640 144 R0
SYMATTR InstName X5
