Version 4
SHEET 1 880 680
WIRE 208 32 208 -32
WIRE 208 32 112 32
WIRE 288 32 208 32
WIRE 112 48 112 32
WIRE 288 64 288 32
WIRE 64 80 0 80
WIRE 64 96 16 96
WIRE 240 96 160 96
WIRE 16 112 16 96
WIRE 16 112 0 112
WIRE 240 112 176 112
WIRE 384 112 336 112
WIRE 176 160 176 112
WIRE 176 160 0 160
FLAG 0 80 A
IOPIN 0 80 In
FLAG 0 112 B
IOPIN 0 112 In
FLAG 0 160 C
IOPIN 0 160 In
FLAG 384 112 OUT
IOPIN 384 112 Out
FLAG 208 -32 VDD
IOPIN 208 -32 In
SYMBOL or 128 96 R0
SYMATTR InstName X1
SYMBOL or 304 112 R0
SYMATTR InstName X2
