Version 4
SHEET 1 2936 680
WIRE 2448 -320 2336 -320
WIRE 2576 -320 2576 -400
WIRE 2576 -320 2448 -320
WIRE 2592 -320 2576 -320
WIRE 2336 -304 2336 -320
WIRE 2592 -288 2592 -320
WIRE 2288 -272 2256 -272
WIRE 2288 -256 2208 -256
WIRE 2528 -256 2384 -256
WIRE 2720 -256 2656 -256
WIRE 2848 -256 2720 -256
WIRE 2528 -208 2416 -208
WIRE 2688 -208 2656 -208
WIRE 2720 -160 2720 -256
WIRE 2720 -160 2480 -160
WIRE 2448 -128 2448 -320
WIRE 2592 -128 2448 -128
WIRE 2480 -96 2480 -160
WIRE 2528 -96 2480 -96
WIRE 2720 -96 2656 -96
WIRE 2848 -96 2720 -96
WIRE 2416 -48 2416 -208
WIRE 2528 -48 2416 -48
WIRE 2688 -48 2656 -48
WIRE 2720 0 2720 -96
WIRE 2720 0 2480 0
WIRE 2448 32 2448 -128
WIRE 2592 32 2448 32
WIRE 2480 64 2480 0
WIRE 2528 64 2480 64
WIRE 2720 64 2656 64
WIRE 2848 64 2720 64
WIRE 2416 112 2416 -48
WIRE 2528 112 2416 112
WIRE 2688 112 2656 112
WIRE 2720 160 2720 64
WIRE 2720 160 2480 160
WIRE 2448 192 2448 32
WIRE 2592 192 2448 192
WIRE 2480 224 2480 160
WIRE 2528 224 2480 224
WIRE 2720 224 2656 224
WIRE 2848 224 2720 224
WIRE 2416 240 2416 112
WIRE 2416 240 2336 240
WIRE 2416 272 2416 240
WIRE 2528 272 2416 272
WIRE 2688 272 2656 272
WIRE 2256 336 2256 -272
WIRE 2720 336 2720 224
WIRE 2720 336 2256 336
FLAG 2336 240 c
IOPIN 2336 240 In
FLAG 2576 -400 vdd
IOPIN 2576 -400 In
FLAG 2208 -256 d
IOPIN 2208 -256 In
FLAG 2848 -256 q3
IOPIN 2848 -256 Out
FLAG 2848 -96 q2
IOPIN 2848 -96 Out
FLAG 2848 64 q1
IOPIN 2848 64 Out
FLAG 2848 224 q0
IOPIN 2848 224 Out
SYMBOL d-front 2592 -64 R0
SYMATTR InstName X1
SYMBOL d-front 2592 96 R0
SYMATTR InstName X2
SYMBOL d-front 2592 256 R0
SYMATTR InstName X3
SYMBOL d-front 2592 -224 R0
SYMATTR InstName X4
SYMBOL or 2352 -256 R0
SYMATTR InstName X5
