Version 4
SHEET 1 2120 680
WIRE 1776 -256 1776 -384
WIRE 1776 -256 1632 -256
WIRE 1824 -256 1776 -256
WIRE 1920 -192 1696 -192
WIRE 1824 -176 1824 -256
WIRE 1760 -144 1712 -144
WIRE 1920 -144 1920 -192
WIRE 1920 -144 1888 -144
WIRE 2032 -144 1920 -144
WIRE 1760 -96 1728 -96
WIRE 1920 -96 1888 -96
WIRE 1712 -64 1712 -144
WIRE 1920 -64 1712 -64
WIRE 1632 16 1632 -256
WIRE 1824 16 1632 16
WIRE 1760 48 1712 48
WIRE 1920 48 1920 -64
WIRE 1920 48 1888 48
WIRE 2032 48 1920 48
WIRE 1728 96 1728 -96
WIRE 1760 96 1728 96
WIRE 1920 96 1888 96
WIRE 1712 128 1712 48
WIRE 1920 128 1712 128
WIRE 1632 160 1632 16
WIRE 1776 160 1632 160
WIRE 1824 160 1776 160
WIRE 1824 176 1824 160
WIRE 1584 192 1552 192
WIRE 1584 208 1488 208
WIRE 1760 208 1680 208
WIRE 1920 208 1920 128
WIRE 1920 208 1888 208
WIRE 2032 208 1920 208
WIRE 1728 256 1728 96
WIRE 1760 256 1728 256
WIRE 1920 256 1888 256
WIRE 1552 304 1552 192
WIRE 1936 304 1552 304
WIRE 1776 336 1776 160
WIRE 1824 336 1776 336
WIRE 1696 368 1696 -192
WIRE 1760 368 1696 368
WIRE 1936 368 1936 304
WIRE 1936 368 1888 368
WIRE 2032 368 1936 368
WIRE 1728 416 1728 256
WIRE 1728 416 1488 416
WIRE 1760 416 1728 416
WIRE 1920 416 1888 416
FLAG 1488 416 c
IOPIN 1488 416 In
FLAG 1776 -384 vdd
IOPIN 1776 -384 In
FLAG 1488 208 d
IOPIN 1488 208 In
FLAG 2032 368 q0
IOPIN 2032 368 Out
FLAG 2032 208 q1
IOPIN 2032 208 Out
FLAG 2032 48 q2
IOPIN 2032 48 Out
FLAG 2032 -144 q3
IOPIN 2032 -144 Out
SYMBOL d-front 1824 -112 R0
SYMATTR InstName X1
SYMBOL d-front 1824 80 R0
SYMATTR InstName X2
SYMBOL d-front 1824 240 R0
SYMATTR InstName X3
SYMBOL d-front 1824 400 R0
SYMATTR InstName X4
SYMBOL or 1648 208 R0
SYMATTR InstName X5
