Version 4
SHEET 1 1508 680
WIRE 272 -1072 -256 -1072
WIRE 1040 -1072 272 -1072
WIRE 1312 -1072 1040 -1072
WIRE 1312 -1056 1312 -1072
WIRE 272 -1040 272 -1072
WIRE 128 -1024 32 -1024
WIRE 1264 -1024 832 -1024
WIRE 128 -1008 128 -1024
WIRE 224 -1008 128 -1008
WIRE 1264 -1008 1216 -1008
WIRE 1424 -1008 1360 -1008
WIRE 224 -992 128 -992
WIRE 832 -992 832 -1024
WIRE 832 -992 320 -992
WIRE 128 -944 128 -992
WIRE 128 -944 32 -944
WIRE 1040 -912 1040 -1072
WIRE 1120 -912 1040 -912
WIRE 1120 -896 1120 -912
WIRE 1072 -864 480 -864
WIRE 1072 -848 1008 -848
WIRE 1216 -848 1216 -1008
WIRE 1216 -848 1168 -848
WIRE -256 -800 -256 -1072
WIRE 256 -800 -256 -800
WIRE 880 -800 256 -800
WIRE 880 -768 880 -800
WIRE 256 -752 256 -800
WIRE 816 -736 704 -736
WIRE 192 -720 64 -720
WIRE 1008 -720 1008 -848
WIRE 1008 -720 944 -720
WIRE 480 -704 480 -864
WIRE 480 -704 320 -704
WIRE 192 -688 96 -688
WIRE -256 -640 -256 -800
WIRE 256 -640 -256 -640
WIRE 912 -640 256 -640
WIRE -256 -608 -256 -640
WIRE -256 -608 -400 -608
WIRE 64 -592 64 -720
WIRE 64 -592 32 -592
WIRE 160 -592 64 -592
WIRE 256 -592 256 -640
WIRE 912 -592 912 -640
WIRE 160 -560 160 -592
WIRE 208 -560 160 -560
WIRE 704 -560 704 -736
WIRE 864 -560 704 -560
WIRE 208 -544 160 -544
WIRE 704 -544 704 -560
WIRE 704 -544 304 -544
WIRE 816 -544 816 -704
WIRE 864 -544 816 -544
WIRE 1040 -544 960 -544
WIRE 96 -512 96 -688
WIRE 96 -512 32 -512
WIRE 160 -512 160 -544
WIRE 160 -512 96 -512
WIRE -256 -464 -256 -608
WIRE 704 -464 -256 -464
WIRE 704 -448 704 -464
WIRE 656 -416 352 -416
WIRE 656 -400 608 -400
WIRE 816 -400 816 -544
WIRE 816 -400 752 -400
WIRE -256 -368 -256 -464
WIRE 496 -368 -256 -368
WIRE 496 -336 496 -368
WIRE 432 -304 368 -304
WIRE -256 -288 -256 -368
WIRE 256 -288 -256 -288
WIRE 608 -288 608 -400
WIRE 608 -288 560 -288
WIRE 432 -272 384 -272
WIRE 256 -256 256 -288
WIRE 192 -224 64 -224
WIRE 352 -208 352 -416
WIRE 352 -208 320 -208
WIRE 192 -192 96 -192
WIRE -256 -144 -256 -288
WIRE 256 -144 -256 -144
WIRE 560 -144 256 -144
WIRE 256 -112 256 -144
WIRE 560 -112 560 -144
WIRE 64 -96 64 -224
WIRE 64 -96 32 -96
WIRE 160 -96 64 -96
WIRE 160 -80 160 -96
WIRE 208 -80 160 -80
WIRE 512 -80 400 -80
WIRE 208 -64 160 -64
WIRE 368 -64 368 -304
WIRE 368 -64 304 -64
WIRE 400 -64 400 -80
WIRE 400 -64 368 -64
WIRE 512 -64 448 -64
WIRE 688 -64 608 -64
WIRE 96 -16 96 -192
WIRE 96 -16 32 -16
WIRE 160 -16 160 -64
WIRE 160 -16 96 -16
WIRE -256 64 -256 -144
WIRE 272 64 -256 64
WIRE 272 80 272 64
WIRE 208 112 64 112
WIRE 384 128 384 -272
WIRE 384 128 336 128
WIRE 448 128 448 -64
WIRE 448 128 384 128
WIRE 208 144 96 144
WIRE -256 192 -256 64
WIRE 272 192 -256 192
WIRE 64 240 64 112
WIRE 64 240 32 240
WIRE 144 240 64 240
WIRE 272 240 272 192
WIRE 144 272 144 240
WIRE 224 272 144 272
WIRE 224 288 144 288
WIRE 400 288 320 288
WIRE 96 320 96 144
WIRE 96 320 32 320
WIRE 144 320 144 288
WIRE 144 320 96 320
FLAG 32 240 a0
IOPIN 32 240 In
FLAG 32 320 b0
IOPIN 32 320 In
FLAG 32 -16 b1
IOPIN 32 -16 In
FLAG 32 -96 a1
IOPIN 32 -96 In
FLAG 32 -512 b2
IOPIN 32 -512 In
FLAG 32 -592 a2
IOPIN 32 -592 In
FLAG 32 -944 b3
IOPIN 32 -944 In
FLAG 32 -1024 a3
IOPIN 32 -1024 In
FLAG 1424 -1008 y3
IOPIN 1424 -1008 Out
FLAG 1040 -544 y2
IOPIN 1040 -544 Out
FLAG 688 -64 y1
IOPIN 688 -64 Out
FLAG 400 288 y0
IOPIN 400 288 Out
FLAG -400 -608 vdd
IOPIN -400 -608 In
SYMBOL xor 272 288 R0
SYMATTR InstName X1
SYMBOL and 256 128 R0
SYMATTR InstName X2
SYMBOL xor 256 -64 R0
SYMATTR InstName X3
SYMBOL xor 560 -64 R0
SYMATTR InstName X4
SYMBOL and 240 -208 R0
SYMATTR InstName X5
SYMBOL and 480 -288 R0
SYMATTR InstName X6
SYMBOL or 720 -400 R0
SYMATTR InstName X7
SYMBOL xor 256 -544 R0
SYMATTR InstName X8
SYMBOL xor 912 -544 R0
SYMATTR InstName X9
SYMBOL and 240 -704 R0
SYMATTR InstName X10
SYMBOL and 864 -720 R0
SYMATTR InstName X11
SYMBOL or 1136 -848 R0
SYMATTR InstName X12
SYMBOL xor 272 -992 R0
SYMATTR InstName X13
SYMBOL xor 1312 -1008 R0
SYMATTR InstName X14
